Circuit: * C:\Users\Starsun Cao\OneDrive\Learning Materials\2021.9-2022.1\Electrical Engineering\Lab\03\Star-star4\Star-star4.asc

Direct Newton iteration for .op point succeeded.

Date: Sat Oct 30 20:48:32 2021
Total elapsed time: 0.125 seconds.

tnom = 27
temp = 27
method = modified trap
totiter = 23136
traniter = 23133
tranpoints = 11557
accept = 7593
rejected = 3964
matrix size = 10
fillins = 0
solver = Normal
Matrix Compiler1: 292 bytes object code size  0.1/0.1/[0.1]
Matrix Compiler2: 658 bytes object code size  0.1/0.1/[0.1]

