Circuit: * C:\Users\Starsun Cao\OneDrive\Learning Materials\2021.9-2022.1\Electrical Engineering\Lab\03\Star-delta2\Star-delta2.asc

Direct Newton iteration for .op point succeeded.

Date: Sun Oct 31 20:25:39 2021
Total elapsed time: 0.110 seconds.

tnom = 27
temp = 27
method = modified trap
totiter = 25957
traniter = 25954
tranpoints = 12978
accept = 7581
rejected = 5397
matrix size = 9
fillins = 0
solver = Normal
Matrix Compiler1: 386 bytes object code size  0.1/0.1/[0.0]
Matrix Compiler2: 565 bytes object code size  0.0/0.1/[0.0]

