Circuit: * C:\Users\a\OneDrive\Learning Materials\2022.9-2023.1\Principles of Circuit\Practice 3\Pract3. Wien.asc

Per .tran options, skipping operating point for transient analysis.
Ignoring empty pin current: Ix(u1:1)
Ignoring empty pin current: Ix(u1:2)

Date: Thu Nov 24 16:40:45 2022
Total elapsed time: 0.266 seconds.

tnom = 27
temp = 27
method = modified trap
totiter = 8775
traniter = 8775
tranpoints = 4146
accept = 4089
rejected = 57
matrix size = 35
fillins = 46
solver = Normal
Matrix Compiler1: 4.02 KB object code size  0.6/0.3/[0.2]
Matrix Compiler2: 3.64 KB object code size  0.3/0.3/[0.2]

