Circuit: * C:\Users\Starsun Cao\OneDrive\Learning Materials\2021.9-2022.1\Electrical Engineering\Lab\03\Star-star3\Star-star3.asc

Direct Newton iteration for .op point succeeded.

Date: Wed Oct 27 16:46:35 2021
Total elapsed time: 0.098 seconds.

tnom = 27
temp = 27
method = modified trap
totiter = 23813
traniter = 23810
tranpoints = 11906
accept = 7586
rejected = 4320
matrix size = 10
fillins = 0
solver = Normal
Matrix Compiler1: 292 bytes object code size  0.1/0.1/[0.0]
Matrix Compiler2: 658 bytes object code size  0.1/0.1/[0.1]

