Circuit: * C:\Users\a\OneDrive\Learning Materials\2022.9-2023.1\Principles of Circuit\Lab_3\Lab3. OpAmp_Filter.asc

Per .tran options, skipping operating point for transient analysis.
Ignoring empty pin current: Ix(u7:1)
Ignoring empty pin current: Ix(u7:2)

Date: Fri Dec 02 20:50:12 2022
Total elapsed time: 0.601 seconds.

tnom = 27
temp = 27
method = modified trap
totiter = 42064
traniter = 42064
tranpoints = 21030
accept = 12633
rejected = 8397
matrix size = 39
fillins = 42
solver = Normal
Matrix Compiler1: 3.88 KB object code size  0.6/0.3/[0.2]
Matrix Compiler2: 3.76 KB object code size  0.2/0.3/[0.2]

