Circuit: * C:\Users\Starsun Cao\OneDrive\Learning Materials\2021.9-2022.1\Electrical Engineering\Lab\03\Star-star6\Star-star6.asc

WARNING: Node NC_01 is floating.

WARNING: Less than two connections to node NC_01.  This node is used by VB.
WARNING: Less than two connections to node NC_02.  This node is used by LB.
Direct Newton iteration for .op point succeeded.

Date: Sat Oct 30 19:33:00 2021
Total elapsed time: 0.107 seconds.

tnom = 27
temp = 27
method = modified trap
totiter = 25957
traniter = 25954
tranpoints = 12978
accept = 7581
rejected = 5397
matrix size = 12
fillins = 1
solver = Normal
Matrix Compiler1: 410 bytes object code size  0.1/0.1/[0.1]
Matrix Compiler2: off  [0.1]/0.1/0.1

