Circuit: * C:\Users\a\OneDrive\Learning Materials\2022.9-2023.1\Principles of Circuit\Lab_4\Laboratory work 4 templates\Lab 4 part 2.asc

WARNING: Less than two connections to node U2:S.  This node is used by R:U2:S.
WARNING: Less than two connections to node U3:S.  This node is used by R:U3:S.
WARNING: Less than two connections to node U4:S.  This node is used by R:U4:S.
WARNING: Less than two connections to node Y.  This node is used by A:U7:1.
Direct Newton iteration for .op point succeeded.

Date: Tue Dec 06 23:08:57 2022
Total elapsed time: 0.092 seconds.

tnom = 27
temp = 27
method = modified trap
totiter = 5959
traniter = 5956
tranpoints = 2920
accept = 2818
rejected = 102
matrix size = 37
fillins = 0
solver = Normal
Matrix Compiler1: 976 bytes object code size  0.2/0.1/[0.1]
Matrix Compiler2: 1.81 KB object code size  0.1/0.2/[0.1]

