Circuit: * C:\Users\a\OneDrive\Learning Materials\2022.9-2023.1\Principles of Circuit\Lab_4\Laboratory work 4 templates\Lab 4 part 3.asc

Warning: Multiple definitions of model "2scr375p" Type: BJT
Warning: Multiple definitions of model "bc857b" Type: BJT
Warning: Multiple definitions of model "bc847c" Type: BJT
Warning: Multiple definitions of model "bc847b" Type: BJT
Error on line 7 : d2 n006 n007 1n4007
	 Unable to find definition of model "1n4007"
Error on line 8 : d3 n006 a 1n4007
	 Unable to find definition of model "1n4007"
Error on line 10 : d4 n009 b 1n4007
	 Unable to find definition of model "1n4007"
Error on line 11 : d5 n009 n008 1n4007
	 Unable to find definition of model "1n4007"
WARNING: Less than two connections to node U1:S.  This node is used by R:U1:S.
Direct Newton iteration for .op point succeeded.
Heightened Def Con from 0.1 to 0.1
Heightened Def Con from 0.1 ++++++++++++++++++++++++++++++to 0.1
Heightened Def Con from 0.9 +++++++++++++++++++++++++++++++to 0.9
Heightened Def Con from 0.9 ++++++++++++++++++++++++++to 0.9
Heightened Def Con from 2.1 ++++++++++++++++++++++++++++++to 2.1
Heightened Def Con from 2.1 ++++++++++++++++++++++++++to 2.1
Heightened Def Con from 2.9 +++++++++++++++++++++++++++++++to 2.9
Heightened Def Con from 2.9 ++++++++++++++++++++++++++to 2.9

Date: Tue Dec 06 23:29:46 2022
Total elapsed time: 3.259 seconds.

tnom = 27
temp = 27
method = modified trap
totiter = 23230
traniter = 23210
tranpoints = 3995
accept = 2407
rejected = 1796
matrix size = 29
fillins = 0
solver = Normal
Matrix Compiler1: 1.23 KB object code size  0.2/0.2/[0.1]
Matrix Compiler2: 2.00 KB object code size  0.2/0.2/[0.2]

