Circuit: * C:\Users\Starsun Cao\OneDrive\Learning Materials\2021.9-2022.1\Electrical Engineering\Lab\04\LC.asc

Direct Newton iteration for .op point succeeded.

Date: Sat Nov 13 15:15:19 2021
Total elapsed time: 0.044 seconds.

tnom = 27
temp = 27
method = modified trap
totiter = 2431
traniter = 2428
tranpoints = 1215
accept = 1177
rejected = 38
matrix size = 4
fillins = 0
solver = Normal
Matrix Compiler1: 100 bytes object code size  0.1/0.0/[0.0]
Matrix Compiler2: 248 bytes object code size  0.1/0.1/[0.0]

