Circuit: * C:\Users\Starsun Cao\OneDrive\Learning Materials\2021.9-2022.1\Electrical Engineering\Lab\04\RC.asc

Direct Newton iteration for .op point succeeded.

Date: Fri Nov 19 13:42:05 2021
Total elapsed time: 0.469 seconds.

tnom = 27
temp = 27
method = modified trap
totiter = 806303
traniter = 806300
tranpoints = 403151
accept = 379799
rejected = 23352
matrix size = 3
fillins = 0
solver = Normal
Matrix Compiler1: 50 bytes object code size  0.0/0.0/[0.0]
Matrix Compiler2: off  [0.0]/0.1/0.0

