Circuit: * C:\Users\Starsun Cao\OneDrive\Learning Materials\2021.9-2022.1\Electrical Engineering\Lab\04\RL.asc

Direct Newton iteration for .op point succeeded.

Date: Sat Nov 13 15:11:52 2021
Total elapsed time: 0.014 seconds.

tnom = 27
temp = 27
method = modified trap
totiter = 9865
traniter = 9862
tranpoints = 4932
accept = 4698
rejected = 234
matrix size = 3
fillins = 0
solver = Normal
Matrix Compiler1: 50 bytes object code size  0.0/0.0/[0.0]
Matrix Compiler2: 175 bytes object code size  0.0/0.0/[0.0]

