Circuit: * C:\Users\Starsun Cao\OneDrive\Learning Materials\2021.9-2022.1\Electrical Engineering\Lab\03\Star-star7\Star-star7.asc

Direct Newton iteration for .op point succeeded.

Date: Sun Oct 31 16:24:13 2021
Total elapsed time: 0.366 seconds.

tnom = 27
temp = 27
method = modified trap
totiter = 25957
traniter = 25954
tranpoints = 12978
accept = 7581
rejected = 5397
matrix size = 8
fillins = 0
solver = Normal
Matrix Compiler1: 228 bytes object code size  0.1/0.1/[0.0]
Matrix Compiler2: 494 bytes object code size  0.1/0.1/[0.1]

