Circuit: * C:\Users\Starsun Cao\OneDrive\Learning Materials\2021.9-2022.1\Electrical Engineering\Lab\03\Star-star1\Star-star1.asc

Direct Newton iteration for .op point succeeded.

Date: Wed Oct 27 16:24:09 2021
Total elapsed time: 0.107 seconds.

tnom = 27
temp = 27
method = modified trap
totiter = 23811
traniter = 23808
tranpoints = 11905
accept = 7586
rejected = 4319
matrix size = 10
fillins = 0
solver = Normal
Matrix Compiler1: 292 bytes object code size  0.1/0.1/[0.0]
Matrix Compiler2: off  [0.1]/0.1/0.1

