Circuit: * C:\Users\Starsun Cao\OneDrive\Learning Materials\2021.9-2022.1\Electrical Engineering\Lab\02\Var72_Parallel.asc

.OP point found by inspection.

Date: Tue Oct 19 16:09:20 2021
Total elapsed time: 0.035 seconds.

tnom = 27
temp = 27
method = modified trap
totiter = 6776
traniter = 6776
tranpoints = 3389
accept = 2101
rejected = 1288
matrix size = 5
fillins = 0
solver = Normal
Matrix Compiler1: 150 bytes object code size  0.1/0.0/[0.0]
Matrix Compiler2: off  [0.0]/0.1/0.0

