Circuit: * C:\Users\Starsun Cao\OneDrive\Learning Materials\2021.9-2022.1\Electrical Engineering\Lab\02\Var72_Series.asc

.OP point found by inspection.

Date: Thu Oct 21 14:56:37 2021
Total elapsed time: 0.029 seconds.

tnom = 27
temp = 27
method = modified trap
totiter = 3082
traniter = 3082
tranpoints = 1542
accept = 1269
rejected = 273
matrix size = 4
fillins = 0
solver = Normal
Matrix Compiler1: 100 bytes object code size  0.0/0.0/[0.0]
Matrix Compiler2:      21 opcodes  0.1/[0.0]/0.1

