Circuit: * C:\Users\Starsun Cao\OneDrive\Learning Materials\2021.9-2022.1\Electrical Engineering\Lab\03\Star-delta4\Star-delta4.asc

WARNING: Less than two connections to node N002.  This node is used by LA.
WARNING: Less than two connections to node N005.  This node is used by LC.
Direct Newton iteration for .op point succeeded.

Date: Sun Oct 31 20:11:18 2021
Total elapsed time: 0.222 seconds.

tnom = 27
temp = 27
method = modified trap
totiter = 26017
traniter = 26014
tranpoints = 13008
accept = 7608
rejected = 5400
matrix size = 11
fillins = 0
solver = Normal
Matrix Compiler1: 324 bytes object code size  0.1/0.1/[0.1]
Matrix Compiler2: 685 bytes object code size  0.1/0.1/[0.1]

