Circuit: * C:\Users\Starsun Cao\OneDrive\Learning Materials\2021.9-2022.1\Electrical Engineering\Lab\01\Var72.asc

Direct Newton iteration for .op point succeeded.

Date: Tue Sep 28 16:27:35 2021
Total elapsed time: 0.016 seconds.

tnom = 27
temp = 27
method = modified trap
totiter = 2099
traniter = 2096
tranpoints = 1049
accept = 1049
rejected = 0
matrix size = 7
fillins = 3
solver = Normal
Matrix Compiler1: 424 bytes object code size  0.1/0.1/[0.0]
Matrix Compiler2: 563 bytes object code size  0.1/0.1/[0.1]

