Circuit: * C:\Users\Starsun Cao\OneDrive\Learning Materials\2021.9-2022.1\Electrical Engineering\Lab\03\Star-delta5\Star-delta5.asc

WARNING: Less than two connections to node NC_01.  This node is used by VB.
Direct Newton iteration for .op point succeeded.

Date: Sun Oct 31 20:14:43 2021
Total elapsed time: 0.111 seconds.

tnom = 27
temp = 27
method = modified trap
totiter = 25957
traniter = 25954
tranpoints = 12978
accept = 7581
rejected = 5397
matrix size = 10
fillins = 0
solver = Normal
Matrix Compiler1: 346 bytes object code size  0.1/0.1/[0.0]
Matrix Compiler2: off  [0.1]/0.1/0.1

