Circuit: * C:\Users\Starsun Cao\OneDrive\Learning Materials\2021.9-2022.1\Electrical Engineering\Lab\03\Star-delta3\Star-delta3.asc

WARNING: Less than two connections to node N004.  This node is used by LC.
Direct Newton iteration for .op point succeeded.

Date: Sun Oct 31 20:05:30 2021
Total elapsed time: 0.240 seconds.

tnom = 27
temp = 27
method = modified trap
totiter = 26017
traniter = 26014
tranpoints = 13008
accept = 7608
rejected = 5400
matrix size = 10
fillins = 0
solver = Normal
Matrix Compiler1: 346 bytes object code size  0.1/0.1/[0.1]
Matrix Compiler2: 628 bytes object code size  0.1/0.1/[0.1]

