Circuit: * C:\Users\a\OneDrive\Learning Materials\2022.9-2023.1\Principles of Circuit\lab1\Lab1_Rectifiers.asc

Per .tran options, skipping operating point for transient analysis.

Date: Fri Nov 11 16:05:52 2022
Total elapsed time: 0.063 seconds.

tnom = 27
temp = 27
method = modified trap
totiter = 10323
traniter = 10323
tranpoints = 4619
accept = 4404
rejected = 215
matrix size = 12
fillins = 9
solver = Normal
Matrix Compiler1: 1.32 KB object code size  0.2/0.1/[0.1]
Matrix Compiler2: 1.12 KB object code size  0.1/0.1/[0.1]

